18
tmp file
C0     -0.674099981785     1.2351000309     0.36779999733
H1     -0.485599994659     1.24020004272     1.44249999523
H2     -1.23059999943     2.14840006828     0.153999999166
C3     0.674099981785     1.2351000309     -0.36779999733
H4     1.23059999943     2.14840006828     -0.153999999166
H5     0.485599994659     1.24020004272     -1.44249999523
C6     1.52400004864     0.0     -0.0
H7     2.18129992485     0.234999999404     0.838199973106
H8     2.18129992485     -0.234999999404     -0.838199973106
C9     0.674099981785     -1.2351000309     0.36779999733
H10     0.485599994659     -1.24020004272     1.44249999523
H11     1.23059999943     -2.14840006828     0.153999999166
C12     -0.674099981785     -1.2351000309     -0.36779999733
H13     -1.23059999943     -2.14840006828     -0.153999999166
H14     -0.485599994659     -1.24020004272     -1.44249999523
C15     -1.52400004864     -0.0     -0.0
H16     -2.18129992485     -0.234999999404     0.838199973106
H17     -2.18129992485     0.234999999404     -0.838199973106
